---- qbsp / ericw-tools v0.18.1 ----
Input file: JailhouseRock.map
Output file: JailhouseRock.bsp

---- LoadMapFile ----
         1044 faces
          173 brushes
           18 entities
           10 unique texnames
          269 texinfo

Opened WAD: ../wads/prototype_1_2.wad
Processing hull 0...
---- Brush_LoadEntity ----
          168 brushes
          155 planes
---- CSGFaces ----
         1014 brushfaces
         1004 csgfaces
          880 mergedfaces
---- SolidBSP ----
         1184 split nodes
          503 solid leafs
          680 empty leafs
            2 water leafs
            0 detail leafs
            0 detail illusionary leafs
            0 detail fence leafs
            0 illusionary visblocker leafs
         1786 leaffaces
         1680 nodefaces
---- Portalize ----
          682 vis leafs
          682 vis clusters
         1672 vis portals
---- FillOutside ----
*** WARNING 10: Reached occupant at (-1064 192 40), no filling performed.
Leak file written to JailhouseRock.pts
---- MakeFaceEdges ----
---- GrowRegions ----
Processing hull 1...
*** WARNING 19: No entities in empty space -- no filling performed (hull 1)
Processing hull 2...
*** WARNING 19: No entities in empty space -- no filling performed (hull 2)
---- WriteBSPFile ----
Wrote JailhouseRock.bsp
          428 planes             8560
         2059 vertexes          24708
         1184 nodes             28416
          176 texinfo            7040
         1680 faces             33600
         2345 clipnodes         18760
          683 leafs             19124
         1786 marksurfaces       3572
         6706 surfedges         26824
         4247 edges             16988
           10 textures         169084
              lightdata             0
              visdata               0
              entdata            1313

0.730 seconds elapsed
Peak memory usage: 10609848 (10.1M)
