---- qbsp / ericw-tools v0.18.1 ----
Input file: JailhouseRock.map
Output file: JailhouseRock.bsp

---- LoadMapFile ----
*** WARNING 06: No info_player_deathmatch entities in level
          137 faces
           23 brushes
            6 entities
            3 unique texnames
           37 texinfo

Opened WAD: ../wads/hipnotic.wad
Processing hull 0...
---- Brush_LoadEntity ----
           23 brushes
           51 planes
---- CSGFaces ----
          137 brushfaces
          138 csgfaces
          138 mergedfaces
---- SolidBSP ----
          194 split nodes
           58 solid leafs
          137 empty leafs
            0 water leafs
            0 detail leafs
            0 detail illusionary leafs
            0 detail fence leafs
            0 illusionary visblocker leafs
          229 leaffaces
          225 nodefaces
---- Portalize ----
          137 vis leafs
          137 vis clusters
          329 vis portals
---- FillOutside ----
*** WARNING 10: Reached occupant at (20 72 76), no filling performed.
Leak file written to JailhouseRock.pts
---- MakeFaceEdges ----
---- GrowRegions ----
Processing hull 1...
*** WARNING 19: No entities in empty space -- no filling performed (hull 1)
Processing hull 2...
*** WARNING 19: No entities in empty space -- no filling performed (hull 2)
---- WriteBSPFile ----
Wrote JailhouseRock.bsp
          112 planes             2240
          269 vertexes           3228
          194 nodes              4656
           34 texinfo            1360
          225 faces              4500
          271 clipnodes          2168
          138 leafs              3864
          229 marksurfaces        458
          897 surfedges          3588
          553 edges              2212
            3 textures          16456
              lightdata             0
              visdata               0
              entdata             382

0.463 seconds elapsed
Peak memory usage: 1435374 (1.4M)
