---- qbsp / ericw-tools v0.18.1 ----
Input file: test.map
Output file: test.bsp

---- LoadMapFile ----
*** WARNING 06: No info_player_deathmatch entities in level
           61 faces
           11 brushes
           31 entities
            7 unique texnames
           36 texinfo

Opened WAD: ../wads/rogue.wad
Processing hull 0...
---- Brush_LoadEntity ----
           11 brushes
           27 planes
---- CSGFaces ----
           61 brushfaces
           95 csgfaces
           88 mergedfaces
---- SolidBSP ----
           77 split nodes
           27 solid leafs
           51 empty leafs
            0 water leafs
            0 detail leafs
            0 detail illusionary leafs
            0 detail fence leafs
            0 illusionary visblocker leafs
          175 leaffaces
          147 nodefaces
---- Portalize ----
           51 vis leafs
           51 vis clusters
          112 vis portals
---- FillOutside ----
           39 outleafs
---- MergeAll ----
           35 mergefaces
---- SolidBSP ----
           20 split nodes
           12 solid leafs
            9 empty leafs
            0 water leafs
            0 detail leafs
            0 detail illusionary leafs
            0 detail fence leafs
            0 illusionary visblocker leafs
           69 leaffaces
           46 nodefaces
---- Portalize ----
            9 vis leafs
            9 vis clusters
           17 vis portals
---- Tjunc ----
           59 world edges
          177 edge points
           46 edges added by tjunctions
            0 faces added by tjunctions
---- MakeFaceEdges ----
---- GrowRegions ----
Processing hull 1...
Processing hull 2...
---- WriteBSPFile ----
Wrote test.bsp
           62 planes             1240
           68 vertexes            816
           20 nodes               480
           12 texinfo             480
           46 faces               920
           93 clipnodes           744
           10 leafs               280
           69 marksurfaces        138
          232 surfedges           928
          117 edges               468
           18 textures         109596
              lightdata             0
              visdata               0
              entdata            2009

0.390 seconds elapsed
Peak memory usage: 1112794 (1.1M)
